data/MATPOWER/rts96.m
function mpc = case96
%CASE96    Power flow data for IEEE RTS-96 bus test case.
%   Please see CASEFORMAT for details on the case file format.
%   
%   
%   
%
%   Converted from IEEE CDF file from:
%       http://www2.ee.washington.edu/research/pstca/rts/pg_tcarts.htm
%
%
% 
%

%   MATPOWER

%% MATPOWER Case Format : Version 2
mpc.version = '2';

%%-----  Power Flow Data  -----%%
%% system MVA base
mpc.baseMVA = 100;

%% bus data
%	bus_i	type	Pd	Qd	Gs	Bs	area	Vm	Va	baseKV	zone	Vmax	Vmin
mpc.bus = [
	101	2	108	22	0	0	11	1	0	138	11	1.1	0.9;
	102	2	97	20	0	0	11	1	0	138	12	1.1	0.9;
	103	1	180	37	0	0	11	1	0	138	11	1.1	0.9;
	104	1	74	15	0	0	11	1	0	138	11	1.1	0.9;
	105	1	71	14	0	0	11	1	0	138	11	1.1	0.9;
	106	1	136	28	0	1	11	1	0	138	12	1.1	0.9;
	107	2	125	25	0	0	11	1	0	138	12	1.1	0.9;
	108	1	171	35	0	0	11	1	0	138	12	1.1	0.9;
	109	1	175	36	0	0	11	1	0	138	13	1.1	0.9;
	110	1	195	40	0	0	11	1	0	138	13	1.1	0.9;
	111	1	0	0	0	0	11	1	0	230	13	1.1	0.9;
	112	1	0	0	0	0	11	1	0	230	13	1.1	0.9;
	113	3	265	54	0	0	12	1	0	230	14	1.1	0.9;
	114	2	194	39	0	0	12	1	0	230	16	1.1	0.9;
	115	2	317	64	0	0	12	1	0	230	16	1.1	0.9;
	116	2	100	20	0	0	12	1	0	230	16	1.1	0.9;
	117	1	0	0	0	0	12	1	0	230	17	1.1	0.9;
	118	2	333	68	0	0	12	1	0	230	17	1.1	0.9;
	119	1	181	37	0	0	12	1	0	230	15	1.1	0.9;
	120	1	128	26	0	0	12	1	0	230	15	1.1	0.9;
	121	2	0	0	0	0	12	1	0	230	17	1.1	0.9;
	122	2	0	0	0	0	12	1	0	230	17	1.1	0.9;
	123	2	0	0	0	0	12	1	0	230	15	1.1	0.9;
	124	1	0	0	0	0	12	1	0	230	16	1.1	0.9;		
	201	2	108	22	0	0	21	1	0	138	21	1.1	0.9;
	202	2	97	20	0	0	21	1	0	138	22	1.1	0.9;
	203	1	180	37	0	0	21	1	0	138	21	1.1	0.9;
	204	1	74	15	0	0	21	1	0	138	21	1.1	0.9;
	205	1	71	14	0	0	21	1	0	138	21	1.1	0.9;
	206	1	136	28	0	1	21	1	0	138	22	1.1	0.9;
	207	2	125	25	0	0	21	1	0	138	22	1.1	0.9;
	208	1	171	35	0	0	21	1	0	138	22	1.1	0.9;
	209	1	175	36	0	0	21	1	0	138	23	1.1	0.9;
	210	1	195	40	0	0	21	1	0	138	23	1.1	0.9;
	211	1	0	0	0	0	21	1	0	230	23	1.1	0.9;
	212	1	0	0	0	0	21	1	0	230	23	1.1	0.9;
	213	2	265	54	0	0	22	1	0	230	24	1.1	0.9;
	214	2	194	39	0	0	22	1	0	230	26	1.1	0.9;
	215	2	317	64	0	0	22	1	0	230	26	1.1	0.9;
	216	2	100	20	0	0	22	1	0	230	26	1.1	0.9;
	217	1	0	0	0	0	22	1	0	230	27	1.1	0.9;
	218	2	333	68	0	0	22	1	0	230	27	1.1	0.9;
	219	1	181	37	0	0	22	1	0	230	25	1.1	0.9;
	220	1	128	26	0	0	22	1	0	230	25	1.1	0.9;
	221	2	0	0	0	0	22	1	0	230	27	1.1	0.9;
	222	2	0	0	0	0	22	1	0	230	27	1.1	0.9;
	223	2	0	0	0	0	22	1	0	230	25	1.1	0.9;
	224	1	0	0	0	0	22	1	0	230	26	1.1	0.9;
	301	2	108	22	0	0	31	1	0	138	31	1.1	0.9;
	302	2	97	20	0	0	31	1	0	138	32	1.1	0.9;
	303	1	180	37	0	0	31	1	0	138	31	1.1	0.9;
	304	1	74	15	0	0	31	1	0	138	31	1.1	0.9;
	305	1	71	14	0	0	31	1	0	138	31	1.1	0.9;
	306	1	136	28	0	1	31	1	0	138	32	1.1	0.9;
	307	2	125	25	0	0	31	1	0	138	32	1.1	0.9;
	308	1	171	35	0	0	31	1	0	138	32	1.1	0.9;
	309	1	175	36	0	0	31	1	0	138	33	1.1	0.9;
	310	1	195	40	0	0	31	1	0	138	33	1.1	0.9;
	311	1	0	0	0	0	31	1	0	230	33	1.1	0.9;
	312	1	0	0	0	0	31	1	0	230	33	1.1	0.9;
	313	2	265	54	0	0	32	1	0	230	34	1.1	0.9;
	314	2	194	39	0	0	32	1	0	230	36	1.1	0.9;
	315	2	317	64	0	0	32	1	0	230	36	1.1	0.9;
	316	2	100	20	0	0	32	1	0	230	36	1.1	0.9;
	317	1	0	0	0	0	32	1	0	230	37	1.1	0.9;
	318	2	333	68	0	0	32	1	0	230	37	1.1	0.9;
	319	1	181	37	0	0	32	1	0	230	35	1.1	0.9;
	320	1	128	26	0	0	32	1	0	230	35	1.1	0.9;
	321	2	0	0	0	0	32	1	0	230	37	1.1	0.9;
	322	2	0	0	0	0	32	1	0	230	37	1.1	0.9;
	323	2	0	0	0	0	32	1	0	230	35	1.1	0.9;
	324	1	0	0	0	0	32	1	0	230	36	1.1	0.9;
	325	1	0	0	0	0	32	1	0	230	35	1.1	0.9;
];

%%	generator	data
%	bus	Pg	Qg	Qmax	Qmin	Vg	mBase	status	Pmax	Pmin	Pc1	Pc2	Qc1min	Qc1max	Qc2min	Qc2max	ramp_agc	ramp_10	ramp_30	ramp_q	apf
mpc.gen = [
	101	172	28.2	0	0	1.035	0	1	0	0	0	0	0	0	0	0	0	0	0	0	0;
	102	172	14	0	0	1.035	0	1	0	0	0	0	0	0	0	0	0	0	0	0	0;
	107	240	51.6	0	0	1.025	0	1	0	0	0	0	0	0	0	0	0	0	0	0	0;
	113	285.3	122.1	0	0	1.020	0	1	0	0	0	0	0	0	0	0	0	0	0	0	0;
	114	0	13.7	0	0	0.980	0	1	0	0	0	0	0	0	0	0	0	0	0	0	0;
	115	215	0.05	0	0	1.014	0	1	0	0	0	0	0	0	0	0	0	0	0	0	0;
	116	155	25.22	0	0	1.017	0	1	0	0	0	0	0	0	0	0	0	0	0	0	0;
	118	400	137.4	0	0	1.050	0	1	0	0	0	0	0	0	0	0	0	0	0	0	0;
	121	400	108.2	0	0	1.050	0	1	0	0	0	0	0	0	0	0	0	0	0	0	0;
	122	300	-29.76	0	0	1.050	0	1	0	0	0	0	0	0	0	0	0	0	0	0	0;
	123	660	135.36	0	0	1.050	0	1	0	0	0	0	0	0	0	0	0	0	0	0	0;
	201	172	28.2	0	0	1.035	0	1	0	0	0	0	0	0	0	0	0	0	0	0	0;
	202	172	14	0	0	1.035	0	1	0	0	0	0	0	0	0	0	0	0	0	0	0;
	207	240	51.6	0	0	1.025	0	1	0	0	0	0	0	0	0	0	0	0	0	0	0;
	213	285.3	122.1	0	0	1.020	0	1	0	0	0	0	0	0	0	0	0	0	0	0	0;
	214	0	13.68	0	0	0.980	0	1	0	0	0	0	0	0	0	0	0	0	0	0	0;
	215	215	0.048	0	0	1.014	0	1	0	0	0	0	0	0	0	0	0	0	0	0	0;
	216	155	25.22	0	0	1.017	0	1	0	0	0	0	0	0	0	0	0	0	0	0	0;
	218	400	137.4	0	0	1.050	0	1	0	0	0	0	0	0	0	0	0	0	0	0	0;
	221	400	108.2	0	0	1.050	0	1	0	0	0	0	0	0	0	0	0	0	0	0	0;
	222	300	-29.76	0	0	1.050	0	1	0	0	0	0	0	0	0	0	0	0	0	0	0;
	223	660	135.36	0	0	1.050	0	1	0	0	0	0	0	0	0	0	0	0	0	0	0;
	301	172	28.2	0	0	1.035	0	1	0	0	0	0	0	0	0	0	0	0	0	0	0;
	302	172	14	0	0	1.035	0	1	0	0	0	0	0	0	0	0	0	0	0	0	0;
	307	240	51.6	0	0	1.025	0	1	0	0	0	0	0	0	0	0	0	0	0	0	0;
	313	285.3	122.1	0	0	1.020	0	1	0	0	0	0	0	0	0	0	0	0	0	0	0;
	314	0	13.68	0	0	0.980	0	1	0	0	0	0	0	0	0	0	0	0	0	0	0;	
	315	215	0.048	0	0	1.014	0	1	0	0	0	0	0	0	0	0	0	0	0	0	0;
	316	155	25.22	0	0	1.017	0	1	0	0	0	0	0	0	0	0	0	0	0	0	0;
	318	400	137.4	0	0	1.050	0	1	0	0	0	0	0	0	0	0	0	0	0	0	0;
	321	400	108.2	0	0	1.050	0	1	0	0	0	0	0	0	0	0	0	0	0	0	0;
	322	300	-29.76	0	0	1.050	0	1	0	0	0	0	0	0	0	0	0	0	0	0	0;
	323	660	135.36	0	0	1.050	0	1	0	0	0	0	0	0	0	0	0	0	0	0	0;
];

%%	branch	data
%	fbus	tbus	r	x	b	rateA	rateB	rateC	ratio	angle	status	angmin	angmax
mpc.branch = [	
	101	102	0.0026	0.0139	0.4611	193	200	200	0	0	1	-360	360;
	101	103	0.0546	0.2112	0.0572	208	220	220	0	0	1	-360	360;
	101	105	0.0218	0.0845	0.0229	208	220	220	0	0	1	-360	360;
	102	104	0.0328	0.1267	0.0343	208	220	220	0	0	1	-360	360;
	102	106	0.0497	0.1920	0.0520	208	220	220	0	0	1	-360	360;
	103	109	0.0308	0.1190	0.0322	208	220	220	0	0	1	-360	360;
	103	124	0.0023	0.0839	0.0000	510	600	600	1.015	0	1	-360	360;
	104	109	0.0268	0.1037	0.0281	208	220	220	0	0	1	-360	360;
	105	110	0.0228	0.0883	0.0239	208	220	220	0	0	1	-360	360;
	106	110	0.0139	0.0605	2.4590	193	200	200	0	0	1	-360	360;
	107	108	0.0159	0.0614	0.0166	208	220	220	0	0	1	-360	360;
	107	203	0.0420	0.1610	0.0440	208	220	220	0	0	1	-360	360;
	108	109	0.0427	0.1651	0.0447	208	220	220	0	0	1	-360	360;
	108	110	0.0427	0.1651	0.0447	208	220	220	0	0	1	-360	360;
	109	111	0.0023	0.0839	0.0000	510	600	600	1.03	0	1	-360	360;
	109	112	0.0023	0.0839	0.0000	510	600	600	1.03	0	1	-360	360;
	110	111	0.0023	0.0839	0.0000	510	600	600	1.015	0	1	-360	360;
	110	112	0.0023	0.0839	0.0000	510	600	600	1.015	0	1	-360	360;
	111	113	0.0061	0.0476	0.0999	600	625	625	0	0	1	-360	360;
	111	114	0.0054	0.0418	0.0879	600	625	625	0	0	1	-360	360;
	112	113	0.0061	0.0476	0.0999	600	625	625	0	0	1	-360	360;
	112	123	0.0124	0.0966	0.2030	600	625	625	0	0	1	-360	360;
	113	123	0.0111	0.0865	0.1818	600	625	625	0	0	1	-360	360;
	113	215	0.0100	0.0750	0.1580	600	625	625	0	0	1	-360	360;
	114	116	0.0050	0.0389	0.0818	600	625	625	0	0	1	-360	360;
	115	116	0.0022	0.0173	0.0364	600	625	625	0	0	1	-360	360;
	115	121	0.0063	0.0490	0.1030	600	625	625	0	0	1	-360	360;
	115	121	0.0063	0.0490	0.1030	600	625	625	0	0	1	-360	360;
	115	124	0.0067	0.0519	0.1091	600	625	625	0	0	1	-360	360;
	116	117	0.0033	0.0259	0.0545	600	625	625	0	0	1	-360	360;
	116	119	0.0030	0.0231	0.0485	600	625	625	0	0	1	-360	360;
	117	118	0.0018	0.0144	0.0303	600	625	625	0	0	1	-360	360;
	117	122	0.0135	0.1053	0.2212	600	625	625	0	0	1	-360	360;
	118	121	0.0033	0.0259	0.0545	600	625	625	0	0	1	-360	360;
	118	121	0.0033	0.0259	0.0545	600	625	625	0	0	1	-360	360;
	119	120	0.0051	0.0396	0.0833	600	625	625	0	0	1	-360	360;
	119	120	0.0051	0.0396	0.0833	600	625	625	0	0	1	-360	360;
	120	123	0.0028	0.0216	0.0455	600	625	625	0	0	1	-360	360;
	120	123	0.0028	0.0216	0.0455	600	625	625	0	0	1	-360	360;
	121	122	0.0087	0.0678	0.1424	600	625	625	0	0	1	-360	360;
	123	217	0.0100	0.0740	0.1550	600	625	625	0	0	1	-360	360;
	201	202	0.0026	0.0139	0.4611	193	200	200	0	0	1	-360	360;
	201	203	0.0546	0.2112	0.0572	208	220	220	0	0	1	-360	360;
	201	205	0.0218	0.0845	0.0229	208	220	220	0	0	1	-360	360;
	202	204	0.0328	0.1267	0.0343	208	220	220	0	0	1	-360	360;
	202	206	0.0497	0.1920	0.0520	208	220	220	0	0	1	-360	360;
	203	209	0.0308	0.1190	0.0322	208	220	220	0	0	1	-360	360;
	203	224	0.0023	0.0839	0.000	510	600	600	1.015	0	1	-360	360;
	204	209	0.0268	0.1037	0.0281	208	220	220	0	0	1	-360	360;
	205	210	0.0228	0.0883	0.0239	208	220	220	0	0	1	-360	360;
	206	210	0.0139	0.0605	2.4590	193	200	200	0	0	1	-360	360;
	207	208	0.0159	0.0614	0.0166	208	220	220	0	0	1	-360	360;
	208	209	0.0427	0.1651	0.0447	208	220	220	0	0	1	-360	360;
	208	210	0.0427	0.1651	0.0447	208	220	220	0	0	1	-360	360;
	209	211	0.0023	0.0839	0.0000	510	600	600	1.03	0	1	-360	360;
	209	212	0.0023	0.0839	0.0000	510	600	600	1.03	0	1	-360	360;
	210	211	0.0023	0.0839	0.0000	510	600	600	1.015	0	1	-360	360;
	210	212	0.0023	0.0839	0.0000	510	600	600	1.015	0	1	-360	360;
	211	213	0.0061	0.0476	0.0999	600	625	625	0	0	1	-360	360;
	211	214	0.0054	0.0418	0.0879	600	625	625	0	0	1	-360	360;
	212	213	0.0061	0.0476	0.0999	600	625	625	0	0	1	-360	360;
	212	223	0.0124	0.0966	0.2030	600	625	625	0	0	1	-360	360;
	213	223	0.0111	0.0865	0.1818	600	625	625	0	0	1	-360	360;
	214	216	0.0050	0.0389	0.0818	600	625	625	0	0	1	-360	360;
	215	216	0.0022	0.0173	0.0364	600	625	625	0	0	1	-360	360;
	215	221	0.0063	0.0490	0.1030	600	625	625	0	0	1	-360	360;
	215	221	0.0063	0.0490	0.1030	600	625	625	0	0	1	-360	360;
	215	224	0.0067	0.0519	0.1091	600	625	625	0	0	1	-360	360;
	216	217	0.0033	0.0259	0.0545	600	625	625	0	0	1	-360	360;
	216	219	0.0030	0.0231	0.0485	600	625	625	0	0	1	-360	360;
	217	218	0.0018	0.0144	0.0303	600	625	625	0	0	1	-360	360;
	217	222	0.0135	0.1053	0.2212	600	625	625	0	0	1	-360	360;
	218	221	0.0033	0.0259	0.0545	600	625	625	0	0	1	-360	360;
	218	221	0.0033	0.0259	0.0545	600	625	625	0	0	1	-360	360;
	219	220	0.0051	0.0396	0.0833	600	625	625	0	0	1	-360	360;
	219	220	0.0051	0.0396	0.0833	600	625	625	0	0	1	-360	360;
	220	223	0.0028	0.0216	0.0455	600	625	625	0	0	1	-360	360;
	220	223	0.0028	0.0216	0.0455	600	625	625	0	0	1	-360	360;
	221	222	0.0087	0.0678	0.1424	600	625	625	0	0	1	-360	360;		
	301	302	0.0026	0.0139	0.4611	193	200	200	0	0	1	-360	360;
	301	303	0.0546	0.2112	0.0572	208	220	220	0	0	1	-360	360;
	301	305	0.0218	0.0845	0.0229	208	220	220	0	0	1	-360	360;
	302	304	0.0328	0.1267	0.0343	208	220	220	0	0	1	-360	360;
	302	306	0.0497	0.1920	0.0520	208	220	220	0	0	1	-360	360;
	303	309	0.0308	0.1190	0.0322	208	220	220	0	0	1	-360	360;
	303	324	0.0023	0.0839	0.0000	510	600	600	1.015	0	1	-360	360;
	304	309	0.0268	0.1037	0.0281	208	220	220	0	0	1	-360	360;
	305	310	0.0228	0.0883	0.0239	208	220	220	0	0	1	-360	360;
	306	310	0.0139	0.0605	2.4590	193	200	200	0	0	1	-360	360;
	307	308	0.0159	0.0614	0.0166	208	220	220	0	0	1	-360	360;
	308	309	0.0427	0.1651	0.0447	208	220	220	0	0	1	-360	360;
	308	310	0.0427	0.1651	0.0447	208	220	220	0	0	1	-360	360;
	309	311	0.0023	0.0839	0.0000	510	600	600	1.03	0	1	-360	360;
	309	312	0.0023	0.0839	0.0000	510	600	600	1.03	0	1	-360	360;
	310	311	0.0023	0.0839	0.0000	510	600	600	1.015	0	1	-360	360;
	310	312	0.0023	0.0839	0.0000	510	600	600	1.015	0	1	-360	360;
	311	313	0.0061	0.0476	0.0999	600	625	625	0	0	1	-360	360;
	311	314	0.0054	0.0418	0.0879	600	625	625	0	0	1	-360	360;
	312	313	0.0061	0.0476	0.0999	600	625	625	0	0	1	-360	360;
	312	323	0.0124	0.0966	0.2030	600	625	625	0	0	1	-360	360;
	313	323	0.0111	0.0865	0.1818	600	625	625	0	0	1	-360	360;
	314	316	0.0050	0.0389	0.0818	600	625	625	0	0	1	-360	360;
	315	316	0.0022	0.0173	0.0364	600	625	625	0	0	1	-360	360;
	315	321	0.0063	0.0490	0.1030	600	625	625	0	0	1	-360	360;
	315	321	0.0063	0.0490	0.1030	600	625	625	0	0	1	-360	360;
	315	324	0.0067	0.0519	0.1091	600	625	625	0	0	1	-360	360;
	316	317	0.0033	0.0259	0.0545	600	625	625	0	0	1	-360	360;
	316	319	0.0030	0.0231	0.0485	600	625	625	0	0	1	-360	360;
	317	318	0.0018	0.0144	0.0303	600	625	625	0	0	1	-360	360;
	317	322	0.0135	0.1053	0.2212	600	625	625	0	0	1	-360	360;
	318	321	0.0033	0.0259	0.0545	600	625	625	0	0	1	-360	360;
	318	321	0.0033	0.0259	0.0545	600	625	625	0	0	1	-360	360;
	319	320	0.0051	0.0396	0.0833	600	625	625	0	0	1	-360	360;
	319	320	0.0051	0.0396	0.0833	600	625	625	0	0	1	-360	360;
	320	323	0.0028	0.0216	0.0455	600	625	625	0	0	1	-360	360;
	320	323	0.0028	0.0216	0.0455	600	625	625	0	0	1	-360	360;
	321	322	0.0087	0.0678	0.1424	600	625	625	0	0	1	-360	360;
	325	121	0.0120	0.0970	0.2030	600	625	625	0	0	1	-360	360;
	318	223	0.0130	0.1040	0.2180	600	625	625	0	0	1	-360	360;
	323	325	0.0000	0.0090	0.0000	893	893	893	1	0	1	-360	360;	
];

%%-----	OPF	Data	-----%%

%%	area	data
mpc.areas	=	[
		11	101;
		12	113;
		21	201;
		22	213;
		31	301;
		32	313
];

%%	generator	cost	data
%	1	startup	shutdown	n	x1	y1	...	xn	yn
%	2	startup	shutdown	n	c(n-1)	...	c0
mpc.gencost	=	[
	2	1	0	3	1	1	1;
	2	1	0	3	1	1	1;
	2	1	0	3	1	1	1;
	2	1	0	3	1	1	1;
	2	1	0	3	1	1	1;
	2	1	0	3	1	1	1;
	2	1	0	3	1	1	1;
	2	1	0	3	1	1	1;
	2	1	0	3	1	1	1;
	2	1	0	3	1	1	1;
	2	1	0	3	1	1	1;
	2	1	0	3	1	1	1;
	2	1	0	3	1	1	1;
	2	1	0	3	1	1	1;
	2	1	0	3	1	1	1;
	2	1	0	3	1	1	1;
	2	1	0	3	1	1	1;
	2	1	0	3	1	1	1;
	2	1	0	3	1	1	1;
	2	1	0	3	1	1	1;
	2	1	0	3	1	1	1;
	2	1	0	3	1	1	1;
	2	1	0	3	1	1	1;
	2	1	0	3	1	1	1;
	2	1	0	3	1	1	1;
	2	1	0	3	1	1	1;
	2	1	0	3	1	1	1;
	2	1	0	3	1	1	1;
	2	1	0	3	1	1	1;
	2	1	0	3	1	1	1;
	2	1	0	3	1	1	1;
	2	1	0	3	1	1	1;
	2	1	0	3	1	1	1;
	2	1	0	3	1	1	1;
	2	1	0	3	1	1	1;
	2	1	0	3	1	1	1;
	2	1	0	3	1	1	1;
	2	1	0	3	1	1	1;
	2	1	0	3	1	1	1;
	2	1	0	3	1	1	1;
	2	1	0	3	1	1	1;
	2	1	0	3	1	1	1;
	2	1	0	3	1	1	1;
	2	1	0	3	1	1	1;
	2	1	0	3	1	1	1;
	2	1	0	3	1	1	1;
	2	1	0	3	1	1	1;
	2	1	0	3	1	1	1;
	2	1	0	3	1	1	1;
	2	1	0	3	1	1	1;
	2	1	0	3	1	1	1;
	2	1	0	3	1	1	1;
	2	1	0	3	1	1	1;
	2	1	0	3	1	1	1;
	2	1	0	3	1	1	1;
	2	1	0	3	1	1	1;
	2	1	0	3	1	1	1;
	2	1	0	3	1	1	1;
	2	1	0	3	1	1	1;
	2	1	0	3	1	1	1;
	2	1	0	3	1	1	1;
	2	1	0	3	1	1	1;
	2	1	0	3	1	1	1;
	2	1	0	3	1	1	1;
	2	1	0	3	1	1	1;
	2	1	0	3	1	1	1;
	2	1	0	3	1	1	1;
	2	1	0	3	1	1	1;
	2	1	0	3	1	1	1;
	2	1	0	3	1	1	1;
	2	1	0	3	1	1	1;
	2	1	0	3	1	1	1;
	2	1	0	3	1	1	1;
	2	1	0	3	1	1	1;
	2	1	0	3	1	1	1;
	2	1	0	3	1	1	1;
	2	1	0	3	1	1	1;
	2	1	0	3	1	1	1;
	2	1	0	3	1	1	1;
	2	1	0	3	1	1	1;
	2	1	0	3	1	1	1;
	2	1	0	3	1	1	1;
	2	1	0	3	1	1	1;
	2	1	0	3	1	1	1;
	2	1	0	3	1	1	1;
	2	1	0	3	1	1	1;
	2	1	0	3	1	1	1;
	2	1	0	3	1	1	1;
	2	1	0	3	1	1	1;
	2	1	0	3	1	1	1;
	2	1	0	3	1	1	1;
	2	1	0	3	1	1	1;
	2	1	0	3	1	1	1;
	2	1	0	3	1	1	1;
	2	1	0	3	1	1	1;
	2	1	0	3	1	1	1;
	2	1	0	3	1	1	1;
	2	1	0	3	1	1	1;
	2	1	0	3	1	1	1;
];
